<?xml version='1.0' encoding='UTF-8' standalone='yes' ?><hierarchy rotation="0"><node index="0" text="" resource-id="" class="android.widget.FrameLayout" package="com.clipboardhistory.debug" content-desc="" checkable="false" checked="false" clickable="false" enabled="true" focusable="false" focused="false" scrollable="false" long-clickable="false" password="false" selected="false" bounds="[60,576][1020,1272]"><node index="0" text="" resource-id="" class="android.widget.FrameLayout" package="com.clipboardhistory.debug" content-desc="" checkable="false" checked="false" clickable="false" enabled="true" focusable="false" focused="false" scrollable="false" long-clickable="false" password="false" selected="false" bounds="[60,576][1020,1272]"><node index="0" text="" resource-id="android:id/content" class="android.widget.FrameLayout" package="com.clipboardhistory.debug" content-desc="" checkable="false" checked="false" clickable="false" enabled="true" focusable="false" focused="false" scrollable="false" long-clickable="false" password="false" selected="false" bounds="[60,576][1020,1272]"><node index="0" text="" resource-id="" class="android.view.ViewGroup" package="com.clipboardhistory.debug" content-desc="" checkable="false" checked="false" clickable="false" enabled="true" focusable="false" focused="false" scrollable="false" long-clickable="false" password="false" selected="false" bounds="[60,576][1020,1272]"><node index="0" text="" resource-id="" class="android.view.View" package="com.clipboardhistory.debug" content-desc="" checkable="false" checked="false" clickable="false" enabled="true" focusable="false" focused="false" scrollable="false" long-clickable="false" password="false" selected="false" bounds="[60,576][1020,1272]"><node index="0" text="" resource-id="" class="android.view.View" package="com.clipboardhistory.debug" content-desc="" checkable="false" checked="false" clickable="false" enabled="true" focusable="false" focused="false" scrollable="false" long-clickable="false" password="false" selected="false" bounds="[60,576][1020,1272]"><node index="0" text="" resource-id="" class="android.view.View" package="com.clipboardhistory.debug" content-desc="" checkable="false" checked="false" clickable="false" enabled="true" focusable="false" focused="false" scrollable="false" long-clickable="false" password="false" selected="false" bounds="[60,576][1020,1272]"><node index="0" text="" resource-id="" class="android.view.View" package="com.clipboardhistory.debug" content-desc="" checkable="false" checked="false" clickable="false" enabled="true" focusable="false" focused="false" scrollable="false" long-clickable="false" password="false" selected="false" bounds="[60,576][1020,1272]"><node index="0" text="Add Clipboard Item" resource-id="" class="android.widget.TextView" package="com.clipboardhistory.debug" content-desc="" checkable="false" checked="false" clickable="false" enabled="true" focusable="false" focused="false" scrollable="false" long-clickable="false" password="false" selected="false" bounds="[132,648][749,744]" /><node index="1" text="" resource-id="" class="android.widget.EditText" package="com.clipboardhistory.debug" content-desc="" checkable="false" checked="false" clickable="true" enabled="true" focusable="true" focused="false" scrollable="false" long-clickable="true" password="false" selected="false" bounds="[132,792][948,984]"><node index="0" text="Content" resource-id="" class="android.widget.TextView" package="com.clipboardhistory.debug" content-desc="" checkable="false" checked="false" clickable="false" enabled="true" focusable="false" focused="false" scrollable="false" long-clickable="false" password="false" selected="false" bounds="[180,864][364,936]" /></node><node index="2" text="" resource-id="" class="android.view.View" package="com.clipboardhistory.debug" content-desc="" checkable="false" checked="false" clickable="true" enabled="true" focusable="true" focused="false" scrollable="false" long-clickable="false" password="false" selected="false" bounds="[548,1056][750,1200]"><node index="0" text="Cancel" resource-id="" class="android.widget.TextView" package="com.clipboardhistory.debug" content-desc="" checkable="false" checked="false" clickable="false" enabled="true" focusable="false" focused="false" scrollable="false" long-clickable="false" password="false" selected="false" bounds="[584,1098][714,1158]" /><node index="1" text="" resource-id="" class="android.widget.Button" package="com.clipboardhistory.debug" content-desc="" checkable="false" checked="false" clickable="false" enabled="true" focusable="false" focused="false" scrollable="false" long-clickable="false" password="false" selected="false" bounds="[548,1068][750,1188]" /></node><node index="3" text="" resource-id="" class="android.view.View" package="com.clipboardhistory.debug" content-desc="" checkable="false" checked="false" clickable="true" enabled="true" focusable="true" focused="false" scrollable="false" long-clickable="false" password="false" selected="false" bounds="[774,1056][948,1200]"><node index="0" text="Add" resource-id="" class="android.widget.TextView" package="com.clipboardhistory.debug" content-desc="" checkable="false" checked="false" clickable="false" enabled="true" focusable="false" focused="false" scrollable="false" long-clickable="false" password="false" selected="false" bounds="[823,1098][900,1158]" /><node index="1" text="" resource-id="" class="android.widget.Button" package="com.clipboardhistory.debug" content-desc="" checkable="false" checked="false" clickable="false" enabled="true" focusable="false" focused="false" scrollable="false" long-clickable="false" password="false" selected="false" bounds="[774,1068][948,1188]" /></node></node></node></node></node></node></node></node></node></hierarchy>