<?xml version='1.0' encoding='UTF-8' standalone='yes' ?><hierarchy rotation="0"><node index="0" text="" resource-id="" class="android.widget.FrameLayout" package="com.clipboardhistory.debug" content-desc="" checkable="false" checked="false" clickable="false" enabled="true" focusable="false" focused="false" scrollable="false" long-clickable="false" password="false" selected="false" bounds="[0,0][1080,1776]"><node index="0" text="" resource-id="" class="android.widget.LinearLayout" package="com.clipboardhistory.debug" content-desc="" checkable="false" checked="false" clickable="false" enabled="true" focusable="false" focused="false" scrollable="false" long-clickable="false" password="false" selected="false" bounds="[0,0][1080,1776]"><node index="0" text="" resource-id="android:id/content" class="android.widget.FrameLayout" package="com.clipboardhistory.debug" content-desc="" checkable="false" checked="false" clickable="false" enabled="true" focusable="false" focused="false" scrollable="false" long-clickable="false" password="false" selected="false" bounds="[0,72][1080,1776]"><node index="0" text="" resource-id="" class="androidx.compose.ui.platform.ComposeView" package="com.clipboardhistory.debug" content-desc="" checkable="false" checked="false" clickable="false" enabled="true" focusable="false" focused="false" scrollable="false" long-clickable="false" password="false" selected="false" bounds="[0,72][1080,1776]"><node index="0" text="" resource-id="" class="android.view.View" package="com.clipboardhistory.debug" content-desc="" checkable="false" checked="false" clickable="false" enabled="true" focusable="false" focused="false" scrollable="false" long-clickable="false" password="false" selected="false" bounds="[0,72][1080,1776]"><node index="0" text="" resource-id="" class="android.view.View" package="com.clipboardhistory.debug" content-desc="" checkable="false" checked="false" clickable="false" enabled="true" focusable="false" focused="false" scrollable="false" long-clickable="false" password="false" selected="false" bounds="[0,72][1080,1776]"><node index="0" text="" resource-id="" class="android.view.View" package="com.clipboardhistory.debug" content-desc="" checkable="false" checked="false" clickable="false" enabled="true" focusable="false" focused="false" scrollable="false" long-clickable="false" password="false" selected="false" bounds="[0,72][1080,1776]"><node index="0" text="" resource-id="" class="android.view.View" package="com.clipboardhistory.debug" content-desc="" checkable="false" checked="false" clickable="false" enabled="true" focusable="false" focused="false" scrollable="false" long-clickable="false" password="false" selected="false" bounds="[48,312][1032,480]"><node index="0" text="Clipboard service is running" resource-id="" class="android.widget.TextView" package="com.clipboardhistory.debug" content-desc="" checkable="false" checked="false" clickable="false" enabled="true" focusable="false" focused="false" scrollable="false" long-clickable="false" password="false" selected="false" bounds="[204,366][747,426]" /></node><node index="1" text="" resource-id="" class="android.view.View" package="com.clipboardhistory.debug" content-desc="" checkable="false" checked="false" clickable="false" enabled="true" focusable="false" focused="false" scrollable="false" long-clickable="false" password="false" selected="false" bounds="[0,528][1080,1776]"><node index="0" text="" resource-id="" class="android.view.View" package="com.clipboardhistory.debug" content-desc="" checkable="false" checked="false" clickable="false" enabled="true" focusable="false" focused="false" scrollable="false" long-clickable="false" password="false" selected="false" bounds="[48,576][1032,972]"><node index="0" text="Just now" resource-id="" class="android.widget.TextView" package="com.clipboardhistory.debug" content-desc="" checkable="false" checked="false" clickable="false" enabled="true" focusable="false" focused="false" scrollable="false" long-clickable="false" password="false" selected="false" bounds="[96,648][253,696]" /><node index="1" text="" resource-id="" class="android.view.View" package="com.clipboardhistory.debug" content-desc="" checkable="false" checked="false" clickable="true" enabled="true" focusable="true" focused="false" scrollable="false" long-clickable="false" password="false" selected="false" bounds="[768,600][864,744]"><node index="0" text="" resource-id="" class="android.view.View" package="com.clipboardhistory.debug" content-desc="Copy" checkable="false" checked="false" clickable="false" enabled="true" focusable="false" focused="false" scrollable="false" long-clickable="false" password="false" selected="false" bounds="[816,648][864,696]" /><node index="1" text="" resource-id="" class="android.widget.Button" package="com.clipboardhistory.debug" content-desc="" checkable="false" checked="false" clickable="false" enabled="true" focusable="false" focused="false" scrollable="false" long-clickable="false" password="false" selected="false" bounds="[792,624][888,720]" /></node><node index="2" text="" resource-id="" class="android.view.View" package="com.clipboardhistory.debug" content-desc="" checkable="false" checked="false" clickable="true" enabled="true" focusable="true" focused="false" scrollable="false" long-clickable="false" password="false" selected="false" bounds="[864,600][1008,744]"><node index="0" text="" resource-id="" class="android.view.View" package="com.clipboardhistory.debug" content-desc="Delete" checkable="false" checked="false" clickable="false" enabled="true" focusable="false" focused="false" scrollable="false" long-clickable="false" password="false" selected="false" bounds="[912,648][960,696]" /><node index="1" text="" resource-id="" class="android.widget.Button" package="com.clipboardhistory.debug" content-desc="" checkable="false" checked="false" clickable="false" enabled="true" focusable="false" focused="false" scrollable="false" long-clickable="false" password="false" selected="false" bounds="[888,624][984,720]" /></node><node index="3" text="Helloi" resource-id="" class="android.widget.TextView" package="com.clipboardhistory.debug" content-desc="" checkable="false" checked="false" clickable="false" enabled="true" focusable="false" focused="false" scrollable="false" long-clickable="false" password="false" selected="false" bounds="[96,744][209,804]" /><node index="4" text="TEXT • 6B" resource-id="" class="android.widget.TextView" package="com.clipboardhistory.debug" content-desc="" checkable="false" checked="false" clickable="false" enabled="true" focusable="false" focused="false" scrollable="false" long-clickable="false" password="false" selected="false" bounds="[96,828][263,876]" /><node index="5" text="1 lines" resource-id="" class="android.widget.TextView" package="com.clipboardhistory.debug" content-desc="" checkable="false" checked="false" clickable="false" enabled="true" focusable="false" focused="false" scrollable="false" long-clickable="false" password="false" selected="false" bounds="[96,876][209,924]" /></node></node><node index="2" text="" resource-id="" class="android.view.View" package="com.clipboardhistory.debug" content-desc="" checkable="false" checked="false" clickable="false" enabled="true" focusable="false" focused="false" scrollable="false" long-clickable="false" password="false" selected="false" bounds="[0,72][1080,264]"><node index="0" text="Clipboard History" resource-id="" class="android.widget.TextView" package="com.clipboardhistory.debug" content-desc="" checkable="false" checked="false" clickable="false" enabled="true" focusable="false" focused="false" scrollable="false" long-clickable="false" password="false" selected="false" bounds="[48,126][564,210]" /><node index="1" text="" resource-id="" class="android.view.View" package="com.clipboardhistory.debug" content-desc="" checkable="false" checked="false" clickable="true" enabled="true" focusable="true" focused="false" scrollable="false" long-clickable="false" password="false" selected="false" bounds="[780,96][924,240]"><node index="0" text="" resource-id="" class="android.view.View" package="com.clipboardhistory.debug" content-desc="Settings" checkable="false" checked="false" clickable="false" enabled="true" focusable="false" focused="false" scrollable="false" long-clickable="false" password="false" selected="false" bounds="[816,132][888,204]" /><node index="1" text="" resource-id="" class="android.widget.Button" package="com.clipboardhistory.debug" content-desc="" checkable="false" checked="false" clickable="false" enabled="true" focusable="false" focused="false" scrollable="false" long-clickable="false" password="false" selected="false" bounds="[792,108][912,228]" /></node><node index="2" text="" resource-id="" class="android.view.View" package="com.clipboardhistory.debug" content-desc="" checkable="false" checked="false" clickable="true" enabled="true" focusable="true" focused="false" scrollable="false" long-clickable="false" password="false" selected="false" bounds="[924,96][1068,240]"><node index="0" text="" resource-id="" class="android.view.View" package="com.clipboardhistory.debug" content-desc="Add Item" checkable="false" checked="false" clickable="false" enabled="true" focusable="false" focused="false" scrollable="false" long-clickable="false" password="false" selected="false" bounds="[960,132][1032,204]" /><node index="1" text="" resource-id="" class="android.widget.Button" package="com.clipboardhistory.debug" content-desc="" checkable="false" checked="false" clickable="false" enabled="true" focusable="false" focused="false" scrollable="false" long-clickable="false" password="false" selected="false" bounds="[936,108][1056,228]" /></node></node><node index="3" text="" resource-id="" class="android.view.View" package="com.clipboardhistory.debug" content-desc="" checkable="false" checked="false" clickable="true" enabled="true" focusable="true" focused="false" scrollable="false" long-clickable="false" password="false" selected="false" bounds="[864,1560][1032,1728]"><node index="0" text="" resource-id="" class="android.view.View" package="com.clipboardhistory.debug" content-desc="Stop Service" checkable="false" checked="false" clickable="false" enabled="true" focusable="false" focused="false" scrollable="false" long-clickable="false" password="false" selected="false" bounds="[912,1608][984,1680]" /><node index="1" text="" resource-id="" class="android.widget.Button" package="com.clipboardhistory.debug" content-desc="" checkable="false" checked="false" clickable="false" enabled="true" focusable="false" focused="false" scrollable="false" long-clickable="false" password="false" selected="false" bounds="[864,1560][1032,1728]" /></node></node></node></node></node></node></node><node index="1" text="" resource-id="android:id/statusBarBackground" class="android.view.View" package="com.clipboardhistory.debug" content-desc="" checkable="false" checked="false" clickable="false" enabled="true" focusable="false" focused="false" scrollable="false" long-clickable="false" password="false" selected="false" bounds="[0,0][1080,72]" /><node index="2" text="" resource-id="android:id/navigationBarBackground" class="android.view.View" package="com.clipboardhistory.debug" content-desc="" checkable="false" checked="false" clickable="false" enabled="true" focusable="false" focused="false" scrollable="false" long-clickable="false" password="false" selected="false" bounds="[0,0][0,0]" /></node></hierarchy>